Circuit: * D:\URC\acoustics-sw8\LTSpice\Draft2.asc

.OP point found by inspection.

Date: Fri Sep 24 16:16:32 2021
Total elapsed time: 0.032 seconds.

tnom = 27
temp = 27
method = modified trap
totiter = 2320
traniter = 2320
tranpoints = 1021
accept = 1021
rejected = 0
matrix size = 4
fillins = 1
solver = Normal
Matrix Compiler1: 226 bytes object code size  0.1/0.1/[0.0]
Matrix Compiler2: 290 bytes object code size  0.1/0.1/[0.1]

