Circuit: * D:\URC\acoustics-sw8\LTSpice\Draft1.asc

Direct Newton iteration for .op point succeeded.

Date: Mon Nov 29 18:01:06 2021
Total elapsed time: 0.082 seconds.

tnom = 27
temp = 27
method = modified trap
totiter = 247
traniter = 240
tranpoints = 121
accept = 121
rejected = 0
matrix size = 8
fillins = 0
solver = Normal
Matrix Compiler1: 246 bytes object code size  0.1/0.1/[0.1]
Matrix Compiler2: 526 bytes object code size  0.1/0.1/[0.1]

